Circuit: * C:\users\xses\My Documents\uni\EE2C11\EE2C11_labs\Draft1.asc

Warning: Pd = 0 is less than W.
Warning: Ps = 0 is less than W.
Vds: Missing value, assumed 0V @ DC
.step vgs=0.6
.step vgs=0.9
.step vgs=1.2
.step vgs=1.5
.step vgs=1.8

Date: Thu Oct 26 13:04:23 2023
Total elapsed time: 0.235 seconds.

tnom = 27
temp = 27
method = trap
totiter = 185
traniter = 0
tranpoints = 0
accept = 0
rejected = 0
matrix size = 4
fillins = 0
solver = Normal
Matrix Compiler1:       7 opcodes  0.1/0.1/[0.1]
Matrix Compiler2: 216 bytes object code size  0.1/0.1/[0.1]

