Circuit: * C:\users\xses\My Documents\uni\EE2C11\EE2C11_labs\Draft1.asc

Warning: Pd = 0 is less than W.
Warning: Ps = 0 is less than W.
Vgs: Missing value, assumed 0V @ DC
.step vds=0.6
.step vds=0.9
.step vds=1.2
.step vds=1.5
.step vds=1.8

Date: Thu Oct 26 14:46:05 2023
Total elapsed time: 0.173 seconds.

tnom = 27
temp = 27
method = trap
totiter = 185
traniter = 0
tranpoints = 0
accept = 0
rejected = 0
matrix size = 4
fillins = 0
solver = Normal
Matrix Compiler1: 118 bytes object code size  0.1/0.1/[0.1]
Matrix Compiler2: off  [0.1]/0.1/0.1

