Circuit: * C:\users\xses\Documents\uni\EE2C11_labs\Draft1.asc

Warning: Pd = 0 is less than W.
Warning: Ps = 0 is less than W.
Vgs: Missing value, assumed 0V @ DC
.step vds=0.6
.step vds=0.63
.step vds=0.66
.step vds=0.69
.step vds=0.72
.step vds=0.75
.step vds=0.78
.step vds=0.81
.step vds=0.84
.step vds=0.87
.step vds=0.9
.step vds=0.93
.step vds=0.96
.step vds=0.99
.step vds=1.02
.step vds=1.05
.step vds=1.08
.step vds=1.11
.step vds=1.14
.step vds=1.17
.step vds=1.2
.step vds=1.23
.step vds=1.26
.step vds=1.29
.step vds=1.32
.step vds=1.35
.step vds=1.38
.step vds=1.41
.step vds=1.44
.step vds=1.47
.step vds=1.5
.step vds=1.53
.step vds=1.56
.step vds=1.59
.step vds=1.62
.step vds=1.65
.step vds=1.68
.step vds=1.71
.step vds=1.74
.step vds=1.77
.step vds=1.8

Date: Tue Sep 19 16:37:43 2023
Total elapsed time: 1.438 seconds.

tnom = 27
temp = 27
method = trap
totiter = 185
traniter = 0
tranpoints = 0
accept = 0
rejected = 0
matrix size = 4
fillins = 0
solver = Normal
Matrix Compiler1: 118 bytes object code size  0.2/0.1/[0.1]
Matrix Compiler2: off  [0.1]/0.1/0.2

